Matlab_PF/ac5ac9ac14.m
function mpc = ac5ac9ac14

%% MATPOWER Case Format : Version 2
mpc.version = '2';

%%-----  Power Flow Data  -----%%
%% system MVA base
mpc.baseMVA = 100;

%% bus data

%	bus_i	type	Pd	Qd	Gs	Bs	area	Vm	Va	baseKV	zone	Vmax	Vmin  grid
mpc.bus = [
    1       3       0	0	0   0   1       1.06	0	345     1       1.1     0.9       1;
	2       2       20	10	0   0   1       1       0	345     1       1         1       1;
	3       1       45	15	0   0   1       1       0	345     1       1.1     0.9       1;
	4       1       40	5	0   0   1       1       0	345     1       1.1     0.9       1;
	5       1       60	10	0   0   1       1       0	345     1       1.1     0.9       1;
    1	    3	    0	0	0	0	1	    1	    0	345	    1	    1.1	    0.9       2;
	2 	    2	    0	0	0	0	1	    1	    0	345	    1	    1.1	    0.9       2;
	3	    2	    0	0	0	0	1	    1	    0	345	    1	    1.1	    0.9       2;
	4	    1	    0	0	0	0	1	    1	    0	345	    1	    1.1	    0.9       2;
	5	    1	    90	30	0	0	1	    1	    0	345	    1	    1.1	    0.9       2;
	6	    1	    0	0	0	0	1	    1	    0	345	    1	    1.1	    0.9       2;
	7	    1	    100	35	0	0	1	    1	    0	345	    1	    1.1	    0.9       2;
	8	    1	    0	0	0	0	1	    1	    0	345	    1	    1.1	    0.9       2;
	9	    1	    125	50	0	0	1	    1	    0	345	    1	    1.1	    0.9       2;
    1	    3	    0	0	0	0	1	    1.06	0	0	    1	    1.06	0.94      3;
	2	    2	    21.7 12.7	0	0	1	1.045  -4.98	0	1	    1.06	0.94      3;
	3	    2	    94.2	19	0	0	1	1.01	-12.72	0	1	    1.06	0.94      3;
	4	    1	    47.8	-3.9	0	0	1	1.019	-10.33	0	1	1.06	0.94      3;
	5	    1	    7.6	    1.6	    0	0	1	1.02	-8.78	0	1	1.06	0.94      3;
	6	    2	    11.2	7.5	    0	0	1	1.07	-14.22	0	1	1.06	0.94      3;
	7	    1	    0	    0	    0	0	1	1.062	-13.37	0	1	1.06	0.94      3;
	8	    2	    0	    0	    0	0	1	1.09	-13.36	0	1	1.06	0.94      3;
	9	    1	    29.5	16.6	0	19	1	1.056	-14.94	0	1	1.06	0.94      3;
	10	    1	    9	    5.8  	0	0	1	1.051	-15.1	0	1	1.06	0.94      3;
	11	    1	    3.5	    1.8	    0	0	1	1.057	-14.79	0	1	1.06	0.94      3;
	12	    1	    6.1	    1.6	    0	0	1	1.055	-15.07	0	1	1.06	0.94      3;
	13	    1	    13.5	5.8	    0	0	1	1.05	-15.16	0	1	1.06	0.94      3;
	14	    1	    14.9	5	    0	0	1	1.036	-16.04	0	1	1.06	0.94      3;
];

%% generator data
%	bus	Pg	Qg	Qmax	Qmin	Vg	mBase	status	Pmax	Pmin	Pc1	Pc2	Qc1min	Qc1max	Qc2min	Qc2max	ramp_agc  ramp_10  ramp_30  ramp_q  apf  grid 
mpc.gen = [
    1	0       0	500      -500    1.06	100       1       250     10   0	0	0	0	0	0	0	0	0	0	0  1;
  	2	40      0	300      -300    1      100       1       40     40   0	0	0	0	0	0	0	0	0	0   0  1;
    1	72.3	27.03	300	-300	1.04	100	1	250	10	0	0	0	0	0	0	0	0	0	0	0  2;
	2	163	6.54	300	-300	1.025	100	1	300	10	0	0	0	0	0	0	0	0	0	0	0  2;
	3	85	-10.95	300	-300	1.025	100	1	270	10	0	0	0	0	0	0	0	0	0	0	0  2;
    1	232.4	-16.9	10	0	1.06	100	1	332.4	0	0	0	0	0	0	0	0	0	0	0	0  3;
	2	40	42.4	50	-40	1.045	100	1	140	0	0	0	0	0	0	0	0	0	0	0	0  3;
	3	0	23.4	40	0	1.01	100	1	100	0	0	0	0	0	0	0	0	0	0	0	0  3;
	6	0	12.2	24	-6	1.07	100	1	100	0	0	0	0	0	0	0	0	0	0	0	0  3;
	8	0	17.4	24	-6	1.09	100	1	100	0	0	0	0	0	0	0	0	0	0	0	0  3;
];

%% branch data
%	fbus	tbus	r	x	b	rateA	rateB	rateC	ratio	angle	status	angmin	angmax  grid
mpc.branch = [
    1   2   0.02    0.06    0.06    100   100   100     0       0       1    -360	360  1;
    1   3   0.08    0.24    0.05    100   100   100     0       0       1    -360	360  1;
    2   3   0.06    0.18    0.04    100   100   100     0       0       1    -360	360  1;
    2   4   0.06    0.18    0.04    100   100   100     0       0       1    -360	360  1;
    2   5   0.04    0.12    0.03    100   100   100     0       0       1    -360	360  1;
    3   4   0.01    0.03    0.02    100   100   100     0       0       1    -360	360  1;
    4   5   0.08    0.24    0.05    100   100   100     0       0       1    -360	360  1;
    1	4	0	0.0576	0	250	250	250	0	0	1	-360	360  2;
	4	5	0.017	0.092	0.158	250	250	250	0	0	1	-360	360  2;
	5	6	0.039	0.17	0.358	150	150	150	0	0	1	-360	360  2;
	3	6	0	0.0586	0	300	300	300	0	0	1	-360	360  2;
	6	7	0.0119	0.1008	0.209	150	150	150	0	0	1	-360	360  2;
	7	8	0.0085	0.072	0.149	250	250	250	0	0	1	-360	360  2;
	8	2	0	0.0625	0	250	250	250	0	0	1	-360	360  2;
	8	9	0.032	0.161	0.306	250	250	250	0	0	1	-360	360  2;
	9	4	0.01	0.085	0.176	250	250	250	0	0	1	-360	360  2;
    1	2	0.01938	0.05917	0.0528	0	0	0	0	0	1	-360	360  3;
	1	5	0.05403	0.22304	0.0492	0	0	0	0	0	1	-360	360  3;
	2	3	0.04699	0.19797	0.0438	0	0	0	0	0	1	-360	360  3;
	2	4	0.05811	0.17632	0.034	0	0	0	0	0	1	-360	360  3;
	2	5	0.05695	0.17388	0.0346	0	0	0	0	0	1	-360	360  3;
	3	4	0.06701	0.17103	0.0128	0	0	0	0	0	1	-360	360  3;
	4	5	0.01335	0.04211	0	0	0	0	0	0	1	-360	360  3;
	4	7	0	0.20912	0	0	0	0	0.978	0	1	-360	360  3;
	4	9	0	0.55618	0	0	0	0	0.969	0	1	-360	360  3;
	5	6	0	0.25202	0	0	0	0	0.932	0	1	-360	360  3;
	6	11	0.09498	0.1989	0	0	0	0	0	0	1	-360	360  3;
	6	12	0.12291	0.25581	0	0	0	0	0	0	1	-360	360  3;
	6	13	0.06615	0.13027	0	0	0	0	0	0	1	-360	360  3;
	7	8	0	0.17615	0	0	0	0	0	0	1	-360	360  3;
	7	9	0	0.11001	0	0	0	0	0	0	1	-360	360  3;
	9	10	0.03181	0.0845	0	0	0	0	0	0	1	-360	360  3;
	9	14	0.12711	0.27038	0	0	0	0	0	0	1	-360	360  3;
	10	11	0.08205	0.19207	0	0	0	0	0	0	1	-360	360  3;
	12	13	0.22092	0.19988	0	0	0	0	0	0	1	-360	360  3;
	13	14	0.17093	0.34802	0	0	0	0	0	0	1	-360	360  3;
];

%%-----  OPF Data  -----%%
%% generator cost data
%	1	startup	shutdown	n	x1	y1	...	xn	yn  grid
%	2	startup	shutdown	n	c(n-1)	...	c0  grid
mpc.gencost = [
    2	1500	0	3	0.11	5	150  1;
	2	2000	0	3	0.085	1.2	600  1;
    2	1500	0	3	0.11	5	150  2;
	2	2000	0	3	0.085	1.2	600  2;
	2	3000	0	3	0.1225	1	335  2
    2	0	0	3	0.0430292599	20	0  3;
	2	0	0	3	0.25	20	0  3;
	2	0	0	3	0.01	40	0  3;
	2	0	0	3	0.01	40	0  3;
	2	0	0	3	0.01	40	0  3;
];